<routes>

    <route id="down" edges="52o 2i 1o 51i"/>
    <route id="right" edges="54o 4i 3o 53i"/>
    <route id="up" edges="53o 3i 4o 54i"/>
    <route id="left" edges="51o 1i 2o 52i"/>

    <vehicle id="up_0" route="up" depart="0" />
    <vehicle id="left_2" route="left" depart="2" />
    <vehicle id="right_4" route="right" depart="4" />
    <vehicle id="down_9" route="down" depart="9" />
    <vehicle id="left_12" route="left" depart="12" />
    <vehicle id="down_13" route="down" depart="13" />
    <vehicle id="down_14" route="down" depart="14" />
    <vehicle id="right_20" route="right" depart="20" />
    <vehicle id="right_21" route="right" depart="21" />
    <vehicle id="up_23" route="up" depart="23" />
    <vehicle id="left_25" route="left" depart="25" />
    <vehicle id="down_26" route="down" depart="26" />
    <vehicle id="left_29" route="left" depart="29" />
    <vehicle id="up_30" route="up" depart="30" />
    <vehicle id="down_31" route="down" depart="31" />
    <vehicle id="down_40" route="down" depart="40" />
    <vehicle id="up_42" route="up" depart="42" />
    <vehicle id="up_43" route="up" depart="43" />
    <vehicle id="right_46" route="right" depart="46" />
    <vehicle id="left_47" route="left" depart="47" />
    <vehicle id="right_48" route="right" depart="48" />
    <vehicle id="left_49" route="left" depart="49" />
    <vehicle id="right_51" route="right" depart="51" />
    <vehicle id="down_52" route="down" depart="52" />
    <vehicle id="down_56" route="down" depart="56" />
    <vehicle id="down_57" route="down" depart="57" />
    <vehicle id="right_59" route="right" depart="59" />
    <vehicle id="up_61" route="up" depart="61" />
    <vehicle id="right_71" route="right" depart="71" />
    <vehicle id="down_72" route="down" depart="72" />
    <vehicle id="right_73" route="right" depart="73" />
    <vehicle id="left_74" route="left" depart="74" />
    <vehicle id="left_79" route="left" depart="79" />
    <vehicle id="down_83" route="down" depart="83" />
    <vehicle id="left_86" route="left" depart="86" />
    <vehicle id="right_92" route="right" depart="92" />
    <vehicle id="right_93" route="right" depart="93" />
    <vehicle id="right_109" route="right" depart="109" />
    <vehicle id="up_111" route="up" depart="111" />
    <vehicle id="down_118" route="down" depart="118" />
    <vehicle id="down_120" route="down" depart="120" />
    <vehicle id="up_122" route="up" depart="122" />
    <vehicle id="down_125" route="down" depart="125" />
    <vehicle id="right_127" route="right" depart="127" />
    <vehicle id="down_128" route="down" depart="128" />
    <vehicle id="up_130" route="up" depart="130" />
    <vehicle id="down_133" route="down" depart="133" />
    <vehicle id="left_134" route="left" depart="134" />
    <vehicle id="up_140" route="up" depart="140" />
    <vehicle id="down_141" route="down" depart="141" />
    <vehicle id="right_142" route="right" depart="142" />
    <vehicle id="right_143" route="right" depart="143" />
    <vehicle id="right_146" route="right" depart="146" />
    <vehicle id="left_147" route="left" depart="147" />
    <vehicle id="up_149" route="up" depart="149" />
    <vehicle id="up_150" route="up" depart="150" />
    <vehicle id="right_152" route="right" depart="152" />
    <vehicle id="right_159" route="right" depart="159" />
    <vehicle id="down_160" route="down" depart="160" />
    <vehicle id="up_161" route="up" depart="161" />
    <vehicle id="left_163" route="left" depart="163" />
    <vehicle id="left_168" route="left" depart="168" />
    <vehicle id="right_170" route="right" depart="170" />
    <vehicle id="left_172" route="left" depart="172" />
    <vehicle id="up_175" route="up" depart="175" />
    <vehicle id="up_177" route="up" depart="177" />
    <vehicle id="down_179" route="down" depart="179" />
    <vehicle id="down_181" route="down" depart="181" />
    <vehicle id="left_182" route="left" depart="182" />
    <vehicle id="left_184" route="left" depart="184" />
    <vehicle id="up_188" route="up" depart="188" />
    <vehicle id="left_195" route="left" depart="195" />
    <vehicle id="down_198" route="down" depart="198" />
    <vehicle id="up_201" route="up" depart="201" />
    <vehicle id="up_203" route="up" depart="203" />
    <vehicle id="left_204" route="left" depart="204" />
    <vehicle id="left_208" route="left" depart="208" />
    <vehicle id="left_214" route="left" depart="214" />
    <vehicle id="up_216" route="up" depart="216" />
    <vehicle id="up_219" route="up" depart="219" />
    <vehicle id="right_221" route="right" depart="221" />
    <vehicle id="right_223" route="right" depart="223" />
    <vehicle id="right_226" route="right" depart="226" />
    <vehicle id="down_228" route="down" depart="228" />
    <vehicle id="up_232" route="up" depart="232" />
    <vehicle id="left_235" route="left" depart="235" />
    <vehicle id="left_242" route="left" depart="242" />
    <vehicle id="down_248" route="down" depart="248" />
    <vehicle id="down_250" route="down" depart="250" />
    <vehicle id="left_252" route="left" depart="252" />
    <vehicle id="left_253" route="left" depart="253" />
    <vehicle id="right_255" route="right" depart="255" />
    <vehicle id="down_256" route="down" depart="256" />
    <vehicle id="up_258" route="up" depart="258" />
    <vehicle id="left_259" route="left" depart="259" />
    <vehicle id="up_260" route="up" depart="260" />
    <vehicle id="right_262" route="right" depart="262" />
    <vehicle id="left_263" route="left" depart="263" />
    <vehicle id="left_264" route="left" depart="264" />
    <vehicle id="right_267" route="right" depart="267" />
    <vehicle id="right_279" route="right" depart="279" />
    <vehicle id="down_281" route="down" depart="281" />
    <vehicle id="right_282" route="right" depart="282" />
    <vehicle id="down_285" route="down" depart="285" />
    <vehicle id="down_286" route="down" depart="286" />
    <vehicle id="right_289" route="right" depart="289" />
    <vehicle id="up_292" route="up" depart="292" />
    <vehicle id="down_293" route="down" depart="293" />
    <vehicle id="right_300" route="right" depart="300" />
    <vehicle id="right_301" route="right" depart="301" />
    <vehicle id="down_305" route="down" depart="305" />
    <vehicle id="left_306" route="left" depart="306" />
    <vehicle id="right_307" route="right" depart="307" />
    <vehicle id="left_309" route="left" depart="309" />
    <vehicle id="down_310" route="down" depart="310" />
    <vehicle id="up_312" route="up" depart="312" />
    <vehicle id="down_314" route="down" depart="314" />
    <vehicle id="down_321" route="down" depart="321" />
    <vehicle id="up_322" route="up" depart="322" />
    <vehicle id="left_324" route="left" depart="324" />
    <vehicle id="right_326" route="right" depart="326" />
    <vehicle id="down_327" route="down" depart="327" />
    <vehicle id="right_328" route="right" depart="328" />
    <vehicle id="left_331" route="left" depart="331" />
    <vehicle id="left_332" route="left" depart="332" />
    <vehicle id="right_334" route="right" depart="334" />
    <vehicle id="down_338" route="down" depart="338" />
    <vehicle id="up_339" route="up" depart="339" />
    <vehicle id="up_341" route="up" depart="341" />
    <vehicle id="up_342" route="up" depart="342" />
    <vehicle id="down_344" route="down" depart="344" />
    <vehicle id="left_345" route="left" depart="345" />
    <vehicle id="left_347" route="left" depart="347" />
    <vehicle id="left_349" route="left" depart="349" />
    <vehicle id="down_350" route="down" depart="350" />
    <vehicle id="right_352" route="right" depart="352" />
    <vehicle id="down_354" route="down" depart="354" />
    <vehicle id="left_356" route="left" depart="356" />
    <vehicle id="up_357" route="up" depart="357" />
    <vehicle id="down_361" route="down" depart="361" />
    <vehicle id="down_362" route="down" depart="362" />
    <vehicle id="up_363" route="up" depart="363" />
    <vehicle id="left_369" route="left" depart="369" />
    <vehicle id="down_370" route="down" depart="370" />
    <vehicle id="right_373" route="right" depart="373" />
    <vehicle id="down_374" route="down" depart="374" />
    <vehicle id="down_375" route="down" depart="375" />
    <vehicle id="right_376" route="right" depart="376" />
    <vehicle id="left_380" route="left" depart="380" />
    <vehicle id="left_381" route="left" depart="381" />
    <vehicle id="right_383" route="right" depart="383" />
    <vehicle id="right_386" route="right" depart="386" />
    <vehicle id="right_387" route="right" depart="387" />
    <vehicle id="right_389" route="right" depart="389" />
    <vehicle id="left_390" route="left" depart="390" />
    <vehicle id="left_397" route="left" depart="397" />
    <vehicle id="right_398" route="right" depart="398" />
    <vehicle id="left_404" route="left" depart="404" />
    <vehicle id="down_406" route="down" depart="406" />
    <vehicle id="right_409" route="right" depart="409" />
    <vehicle id="up_411" route="up" depart="411" />
    <vehicle id="left_412" route="left" depart="412" />
    <vehicle id="down_413" route="down" depart="413" />
    <vehicle id="right_414" route="right" depart="414" />
    <vehicle id="left_415" route="left" depart="415" />
    <vehicle id="right_422" route="right" depart="422" />
    <vehicle id="left_424" route="left" depart="424" />
    <vehicle id="up_428" route="up" depart="428" />
    <vehicle id="left_429" route="left" depart="429" />
    <vehicle id="left_431" route="left" depart="431" />
    <vehicle id="right_434" route="right" depart="434" />
    <vehicle id="left_436" route="left" depart="436" />
    <vehicle id="left_445" route="left" depart="445" />
    <vehicle id="down_446" route="down" depart="446" />
    <vehicle id="up_447" route="up" depart="447" />
    <vehicle id="up_449" route="up" depart="449" />
    <vehicle id="up_454" route="up" depart="454" />
    <vehicle id="up_455" route="up" depart="455" />
    <vehicle id="down_456" route="down" depart="456" />
    <vehicle id="left_458" route="left" depart="458" />
    <vehicle id="up_460" route="up" depart="460" />
    <vehicle id="left_461" route="left" depart="461" />
    <vehicle id="right_462" route="right" depart="462" />
    <vehicle id="left_463" route="left" depart="463" />
    <vehicle id="up_469" route="up" depart="469" />
    <vehicle id="down_473" route="down" depart="473" />
    <vehicle id="left_474" route="left" depart="474" />
    <vehicle id="left_476" route="left" depart="476" />
    <vehicle id="left_477" route="left" depart="477" />
    <vehicle id="up_478" route="up" depart="478" />
    <vehicle id="right_484" route="right" depart="484" />
    <vehicle id="down_486" route="down" depart="486" />
    <vehicle id="down_487" route="down" depart="487" />
    <vehicle id="right_491" route="right" depart="491" />
    <vehicle id="up_493" route="up" depart="493" />
    <vehicle id="up_495" route="up" depart="495" />
    <vehicle id="right_496" route="right" depart="496" />
    <vehicle id="right_497" route="right" depart="497" />
    <vehicle id="down_498" route="down" depart="498" />
    <vehicle id="down_499" route="down" depart="499" />
    <vehicle id="right_501" route="right" depart="501" />
    <vehicle id="up_505" route="up" depart="505" />
    <vehicle id="up_510" route="up" depart="510" />
    <vehicle id="down_511" route="down" depart="511" />
    <vehicle id="up_512" route="up" depart="512" />
    <vehicle id="up_515" route="up" depart="515" />
    <vehicle id="left_516" route="left" depart="516" />
    <vehicle id="down_520" route="down" depart="520" />
    <vehicle id="up_526" route="up" depart="526" />
    <vehicle id="down_527" route="down" depart="527" />
    <vehicle id="right_533" route="right" depart="533" />
    <vehicle id="left_534" route="left" depart="534" />
    <vehicle id="up_535" route="up" depart="535" />
    <vehicle id="right_536" route="right" depart="536" />
    <vehicle id="right_541" route="right" depart="541" />
    <vehicle id="down_542" route="down" depart="542" />
    <vehicle id="down_544" route="down" depart="544" />
    <vehicle id="down_546" route="down" depart="546" />
    <vehicle id="right_548" route="right" depart="548" />
    <vehicle id="up_549" route="up" depart="549" />
    <vehicle id="left_552" route="left" depart="552" />
    <vehicle id="down_553" route="down" depart="553" />
    <vehicle id="up_557" route="up" depart="557" />
    <vehicle id="left_558" route="left" depart="558" />
    <vehicle id="right_559" route="right" depart="559" />
    <vehicle id="up_560" route="up" depart="560" />
    <vehicle id="down_561" route="down" depart="561" />
    <vehicle id="down_563" route="down" depart="563" />
    <vehicle id="up_565" route="up" depart="565" />
    <vehicle id="left_572" route="left" depart="572" />
    <vehicle id="up_575" route="up" depart="575" />
    <vehicle id="right_577" route="right" depart="577" />
    <vehicle id="right_578" route="right" depart="578" />
    <vehicle id="down_582" route="down" depart="582" />
    <vehicle id="right_586" route="right" depart="586" />
    <vehicle id="down_590" route="down" depart="590" />
    <vehicle id="left_592" route="left" depart="592" />
    <vehicle id="up_602" route="up" depart="602" />
    <vehicle id="right_603" route="right" depart="603" />
    <vehicle id="right_607" route="right" depart="607" />
    <vehicle id="down_608" route="down" depart="608" />
    <vehicle id="down_610" route="down" depart="610" />
    <vehicle id="right_611" route="right" depart="611" />
    <vehicle id="up_612" route="up" depart="612" />
    <vehicle id="up_617" route="up" depart="617" />
    <vehicle id="up_620" route="up" depart="620" />
    <vehicle id="left_627" route="left" depart="627" />
    <vehicle id="down_632" route="down" depart="632" />
    <vehicle id="left_633" route="left" depart="633" />
    <vehicle id="up_637" route="up" depart="637" />
    <vehicle id="left_638" route="left" depart="638" />
    <vehicle id="left_643" route="left" depart="643" />
    <vehicle id="right_648" route="right" depart="648" />
    <vehicle id="down_650" route="down" depart="650" />
    <vehicle id="right_652" route="right" depart="652" />
    <vehicle id="left_653" route="left" depart="653" />
    <vehicle id="down_659" route="down" depart="659" />
    <vehicle id="down_660" route="down" depart="660" />
    <vehicle id="up_662" route="up" depart="662" />
    <vehicle id="left_663" route="left" depart="663" />
    <vehicle id="up_665" route="up" depart="665" />
    <vehicle id="right_666" route="right" depart="666" />
    <vehicle id="down_671" route="down" depart="671" />
    <vehicle id="left_672" route="left" depart="672" />
    <vehicle id="right_677" route="right" depart="677" />
    <vehicle id="right_680" route="right" depart="680" />
    <vehicle id="down_684" route="down" depart="684" />
    <vehicle id="up_685" route="up" depart="685" />
    <vehicle id="left_686" route="left" depart="686" />
    <vehicle id="up_689" route="up" depart="689" />
    <vehicle id="up_690" route="up" depart="690" />
    <vehicle id="left_691" route="left" depart="691" />
    <vehicle id="left_698" route="left" depart="698" />
    <vehicle id="left_700" route="left" depart="700" />
    <vehicle id="down_701" route="down" depart="701" />
    <vehicle id="left_702" route="left" depart="702" />
    <vehicle id="right_705" route="right" depart="705" />
    <vehicle id="right_707" route="right" depart="707" />
    <vehicle id="up_709" route="up" depart="709" />
    <vehicle id="left_711" route="left" depart="711" />
    <vehicle id="down_727" route="down" depart="727" />
    <vehicle id="up_729" route="up" depart="729" />
    <vehicle id="down_732" route="down" depart="732" />
    <vehicle id="up_735" route="up" depart="735" />
    <vehicle id="left_737" route="left" depart="737" />
    <vehicle id="left_741" route="left" depart="741" />
    <vehicle id="up_743" route="up" depart="743" />
    <vehicle id="up_744" route="up" depart="744" />
    <vehicle id="up_745" route="up" depart="745" />
    <vehicle id="right_749" route="right" depart="749" />
    <vehicle id="left_750" route="left" depart="750" />
    <vehicle id="left_751" route="left" depart="751" />
    <vehicle id="up_752" route="up" depart="752" />
    <vehicle id="left_754" route="left" depart="754" />
    <vehicle id="down_756" route="down" depart="756" />
    <vehicle id="right_758" route="right" depart="758" />
    <vehicle id="down_765" route="down" depart="765" />
    <vehicle id="down_768" route="down" depart="768" />
    <vehicle id="right_771" route="right" depart="771" />
    <vehicle id="right_774" route="right" depart="774" />
    <vehicle id="down_776" route="down" depart="776" />
    <vehicle id="right_777" route="right" depart="777" />
    <vehicle id="left_783" route="left" depart="783" />
    <vehicle id="up_787" route="up" depart="787" />
    <vehicle id="left_788" route="left" depart="788" />
    <vehicle id="down_790" route="down" depart="790" />
    <vehicle id="up_792" route="up" depart="792" />
    <vehicle id="left_795" route="left" depart="795" />
    <vehicle id="right_796" route="right" depart="796" />
    <vehicle id="right_798" route="right" depart="798" />
    <vehicle id="down_800" route="down" depart="800" />
    <vehicle id="left_803" route="left" depart="803" />
    <vehicle id="left_804" route="left" depart="804" />
    <vehicle id="left_807" route="left" depart="807" />
    <vehicle id="up_808" route="up" depart="808" />
    <vehicle id="left_811" route="left" depart="811" />
    <vehicle id="up_812" route="up" depart="812" />
    <vehicle id="up_814" route="up" depart="814" />
    <vehicle id="up_816" route="up" depart="816" />
    <vehicle id="left_818" route="left" depart="818" />
    <vehicle id="up_822" route="up" depart="822" />
    <vehicle id="up_824" route="up" depart="824" />
    <vehicle id="up_825" route="up" depart="825" />
    <vehicle id="left_826" route="left" depart="826" />
    <vehicle id="up_827" route="up" depart="827" />
    <vehicle id="left_829" route="left" depart="829" />
    <vehicle id="up_834" route="up" depart="834" />
    <vehicle id="left_837" route="left" depart="837" />
    <vehicle id="up_840" route="up" depart="840" />
    <vehicle id="right_846" route="right" depart="846" />
    <vehicle id="down_850" route="down" depart="850" />
    <vehicle id="down_853" route="down" depart="853" />
    <vehicle id="up_866" route="up" depart="866" />
    <vehicle id="left_868" route="left" depart="868" />
    <vehicle id="right_871" route="right" depart="871" />
    <vehicle id="down_873" route="down" depart="873" />
    <vehicle id="left_879" route="left" depart="879" />
    <vehicle id="right_880" route="right" depart="880" />
    <vehicle id="down_881" route="down" depart="881" />
    <vehicle id="up_884" route="up" depart="884" />
    <vehicle id="right_885" route="right" depart="885" />
    <vehicle id="right_886" route="right" depart="886" />
    <vehicle id="right_887" route="right" depart="887" />
    <vehicle id="left_890" route="left" depart="890" />
    <vehicle id="right_894" route="right" depart="894" />
    <vehicle id="right_895" route="right" depart="895" />
    <vehicle id="right_896" route="right" depart="896" />
    <vehicle id="right_898" route="right" depart="898" />
    <vehicle id="left_899" route="left" depart="899" />
    <vehicle id="right_909" route="right" depart="909" />
    <vehicle id="up_911" route="up" depart="911" />
    <vehicle id="up_915" route="up" depart="915" />
    <vehicle id="right_921" route="right" depart="921" />
    <vehicle id="left_923" route="left" depart="923" />
    <vehicle id="left_924" route="left" depart="924" />
    <vehicle id="down_925" route="down" depart="925" />
    <vehicle id="left_927" route="left" depart="927" />
    <vehicle id="down_928" route="down" depart="928" />
    <vehicle id="up_931" route="up" depart="931" />
    <vehicle id="down_932" route="down" depart="932" />
    <vehicle id="left_936" route="left" depart="936" />
    <vehicle id="right_937" route="right" depart="937" />
    <vehicle id="down_942" route="down" depart="942" />
    <vehicle id="down_944" route="down" depart="944" />
    <vehicle id="right_946" route="right" depart="946" />
    <vehicle id="down_947" route="down" depart="947" />
    <vehicle id="left_949" route="left" depart="949" />
    <vehicle id="up_950" route="up" depart="950" />
    <vehicle id="left_951" route="left" depart="951" />
    <vehicle id="up_953" route="up" depart="953" />
    <vehicle id="down_954" route="down" depart="954" />
    <vehicle id="down_955" route="down" depart="955" />
    <vehicle id="down_956" route="down" depart="956" />
    <vehicle id="right_965" route="right" depart="965" />
    <vehicle id="right_968" route="right" depart="968" />
    <vehicle id="up_970" route="up" depart="970" />
    <vehicle id="left_971" route="left" depart="971" />
    <vehicle id="down_972" route="down" depart="972" />
    <vehicle id="left_974" route="left" depart="974" />
    <vehicle id="up_976" route="up" depart="976" />
    <vehicle id="down_980" route="down" depart="980" />
    <vehicle id="up_981" route="up" depart="981" />
    <vehicle id="left_983" route="left" depart="983" />
    <vehicle id="down_984" route="down" depart="984" />
    <vehicle id="up_985" route="up" depart="985" />
    <vehicle id="up_989" route="up" depart="989" />
    <vehicle id="up_994" route="up" depart="994" />
    <vehicle id="right_999" route="right" depart="999" />
    <vehicle id="left_1004" route="left" depart="1004" />
    <vehicle id="down_1005" route="down" depart="1005" />
    <vehicle id="right_1006" route="right" depart="1006" />
    <vehicle id="up_1011" route="up" depart="1011" />
    <vehicle id="right_1012" route="right" depart="1012" />
    <vehicle id="down_1014" route="down" depart="1014" />
    <vehicle id="up_1016" route="up" depart="1016" />
    <vehicle id="down_1017" route="down" depart="1017" />
    <vehicle id="left_1023" route="left" depart="1023" />
    <vehicle id="down_1025" route="down" depart="1025" />
    <vehicle id="left_1031" route="left" depart="1031" />
    <vehicle id="up_1035" route="up" depart="1035" />
    <vehicle id="down_1037" route="down" depart="1037" />
    <vehicle id="right_1040" route="right" depart="1040" />
    <vehicle id="left_1041" route="left" depart="1041" />
    <vehicle id="left_1043" route="left" depart="1043" />
    <vehicle id="right_1047" route="right" depart="1047" />
    <vehicle id="up_1050" route="up" depart="1050" />
    <vehicle id="right_1051" route="right" depart="1051" />
    <vehicle id="left_1052" route="left" depart="1052" />
    <vehicle id="up_1060" route="up" depart="1060" />
    <vehicle id="left_1067" route="left" depart="1067" />
    <vehicle id="down_1075" route="down" depart="1075" />
    <vehicle id="left_1078" route="left" depart="1078" />
    <vehicle id="up_1081" route="up" depart="1081" />
    <vehicle id="down_1084" route="down" depart="1084" />
    <vehicle id="left_1087" route="left" depart="1087" />
    <vehicle id="left_1090" route="left" depart="1090" />
    <vehicle id="down_1093" route="down" depart="1093" />
    <vehicle id="down_1094" route="down" depart="1094" />
    <vehicle id="right_1097" route="right" depart="1097" />
    <vehicle id="down_1100" route="down" depart="1100" />
    <vehicle id="right_1105" route="right" depart="1105" />
    <vehicle id="down_1107" route="down" depart="1107" />
    <vehicle id="down_1109" route="down" depart="1109" />
    <vehicle id="left_1110" route="left" depart="1110" />
    <vehicle id="left_1113" route="left" depart="1113" />
    <vehicle id="left_1116" route="left" depart="1116" />
    <vehicle id="down_1119" route="down" depart="1119" />
    <vehicle id="down_1122" route="down" depart="1122" />
    <vehicle id="right_1123" route="right" depart="1123" />
    <vehicle id="right_1128" route="right" depart="1128" />
    <vehicle id="right_1129" route="right" depart="1129" />
    <vehicle id="left_1131" route="left" depart="1131" />
    <vehicle id="left_1133" route="left" depart="1133" />
    <vehicle id="up_1137" route="up" depart="1137" />
    <vehicle id="right_1140" route="right" depart="1140" />
    <vehicle id="right_1143" route="right" depart="1143" />
    <vehicle id="left_1144" route="left" depart="1144" />
    <vehicle id="down_1150" route="down" depart="1150" />
    <vehicle id="down_1153" route="down" depart="1153" />
    <vehicle id="down_1154" route="down" depart="1154" />
    <vehicle id="up_1155" route="up" depart="1155" />
    <vehicle id="up_1156" route="up" depart="1156" />
    <vehicle id="up_1158" route="up" depart="1158" />
    <vehicle id="right_1160" route="right" depart="1160" />
    <vehicle id="left_1163" route="left" depart="1163" />
    <vehicle id="up_1165" route="up" depart="1165" />
    <vehicle id="up_1167" route="up" depart="1167" />
    <vehicle id="down_1171" route="down" depart="1171" />
    <vehicle id="up_1174" route="up" depart="1174" />
    <vehicle id="up_1175" route="up" depart="1175" />
    <vehicle id="right_1177" route="right" depart="1177" />
    <vehicle id="down_1181" route="down" depart="1181" />
    <vehicle id="left_1182" route="left" depart="1182" />
    <vehicle id="right_1184" route="right" depart="1184" />
    <vehicle id="up_1192" route="up" depart="1192" />
    <vehicle id="right_1195" route="right" depart="1195" />
    <vehicle id="up_1197" route="up" depart="1197" />
    <vehicle id="left_1201" route="left" depart="1201" />
    <vehicle id="right_1204" route="right" depart="1204" />
    <vehicle id="up_1206" route="up" depart="1206" />
    <vehicle id="up_1210" route="up" depart="1210" />
    <vehicle id="down_1211" route="down" depart="1211" />
    <vehicle id="right_1214" route="right" depart="1214" />
    <vehicle id="down_1215" route="down" depart="1215" />
    <vehicle id="left_1216" route="left" depart="1216" />
    <vehicle id="down_1220" route="down" depart="1220" />
    <vehicle id="up_1224" route="up" depart="1224" />
    <vehicle id="left_1230" route="left" depart="1230" />
    <vehicle id="down_1236" route="down" depart="1236" />
    <vehicle id="down_1237" route="down" depart="1237" />
    <vehicle id="down_1239" route="down" depart="1239" />
    <vehicle id="up_1240" route="up" depart="1240" />
    <vehicle id="down_1241" route="down" depart="1241" />
    <vehicle id="right_1242" route="right" depart="1242" />
    <vehicle id="left_1246" route="left" depart="1246" />
    <vehicle id="down_1247" route="down" depart="1247" />
    <vehicle id="up_1249" route="up" depart="1249" />
    <vehicle id="left_1254" route="left" depart="1254" />
    <vehicle id="down_1256" route="down" depart="1256" />
    <vehicle id="right_1257" route="right" depart="1257" />
    <vehicle id="up_1258" route="up" depart="1258" />
    <vehicle id="down_1260" route="down" depart="1260" />
    <vehicle id="up_1261" route="up" depart="1261" />
    <vehicle id="down_1262" route="down" depart="1262" />
    <vehicle id="up_1263" route="up" depart="1263" />
    <vehicle id="left_1264" route="left" depart="1264" />
    <vehicle id="up_1265" route="up" depart="1265" />
    <vehicle id="down_1266" route="down" depart="1266" />
    <vehicle id="down_1268" route="down" depart="1268" />
    <vehicle id="up_1273" route="up" depart="1273" />
    <vehicle id="down_1274" route="down" depart="1274" />
    <vehicle id="right_1281" route="right" depart="1281" />
    <vehicle id="left_1284" route="left" depart="1284" />
    <vehicle id="left_1285" route="left" depart="1285" />
    <vehicle id="up_1292" route="up" depart="1292" />
    <vehicle id="down_1293" route="down" depart="1293" />
    <vehicle id="up_1294" route="up" depart="1294" />
    <vehicle id="left_1297" route="left" depart="1297" />
    <vehicle id="right_1298" route="right" depart="1298" />
    <vehicle id="up_1302" route="up" depart="1302" />
    <vehicle id="left_1303" route="left" depart="1303" />
    <vehicle id="down_1307" route="down" depart="1307" />
    <vehicle id="up_1308" route="up" depart="1308" />
    <vehicle id="down_1310" route="down" depart="1310" />
    <vehicle id="left_1312" route="left" depart="1312" />
    <vehicle id="up_1313" route="up" depart="1313" />
    <vehicle id="left_1314" route="left" depart="1314" />
    <vehicle id="right_1317" route="right" depart="1317" />
    <vehicle id="down_1320" route="down" depart="1320" />
    <vehicle id="down_1322" route="down" depart="1322" />
    <vehicle id="up_1323" route="up" depart="1323" />
    <vehicle id="down_1331" route="down" depart="1331" />
    <vehicle id="up_1332" route="up" depart="1332" />
    <vehicle id="down_1337" route="down" depart="1337" />
    <vehicle id="down_1341" route="down" depart="1341" />
    <vehicle id="left_1348" route="left" depart="1348" />
    <vehicle id="down_1352" route="down" depart="1352" />
    <vehicle id="right_1355" route="right" depart="1355" />
    <vehicle id="up_1358" route="up" depart="1358" />
    <vehicle id="left_1366" route="left" depart="1366" />
    <vehicle id="left_1367" route="left" depart="1367" />
    <vehicle id="up_1368" route="up" depart="1368" />
    <vehicle id="left_1370" route="left" depart="1370" />
    <vehicle id="left_1373" route="left" depart="1373" />
    <vehicle id="down_1377" route="down" depart="1377" />
    <vehicle id="down_1382" route="down" depart="1382" />
    <vehicle id="right_1384" route="right" depart="1384" />
    <vehicle id="down_1387" route="down" depart="1387" />
    <vehicle id="up_1388" route="up" depart="1388" />
    <vehicle id="down_1390" route="down" depart="1390" />
    <vehicle id="right_1395" route="right" depart="1395" />
    <vehicle id="left_1397" route="left" depart="1397" />
    <vehicle id="right_1403" route="right" depart="1403" />