<routes>
    <flow id="type1" color="1,1,0"  begin="0" probability="0.02">
        <route edges="right_l1 l1_l0 l0_left"/>
    </flow>
</routes>
