<?xml version="1.0" encoding="UTF-8"?>

<routes xmlns:xsi="http://www.w3.org/2001/XMLSchema-instance" xsi:noNamespaceSchemaLocation="http://sumo.dlr.de/xsd/routes_file.xsd">

    <!-- Dumb loop -->
    <vehicle id="4" depart="0.00">
        <route edges="L67 L68 L61 L62 L63 L64 L65 L66 L67 L68 L61 L62 L63 L64 L65 L66 L67 L68 L61 L62 L63 L64 L65 L66 L67 L68 L61 L62 L63 L64 L65 L66 L67 L68 L61 L62 L63 L64 L65 L66 L67 L68 L61 L62 L63 L64 L65 L66"/>
    </vehicle>

    <vehicle id="5" depart="0.00">
        <route edges="L67 L68 L61 L62 L63 L64 L65 L66 L67 L68 L61 L62 L63 L64 L65 L66 L67 L68 L61 L62 L63 L64 L65 L66 L67 L68 L61 L62 L63 L64 L65 L66 L67 L68 L61 L62 L63 L64 L65 L66 L67 L68 L61 L62 L63 L64 L65 L66"/>
    </vehicle>

    <vehicle id="6" depart="0.00">
        <route edges="L67 L68 L65 L66 L67 L68 L61 L62 L63 L64 L61 L62 L63 L64 L65 L66 L67 L68 L65 L66 L67 L68 L61 L62 L63 L64 L61 L62 L63 L64 L65 L66 L67 L68 L65 L66 L67 L68 L61 L62 L63 L64 L61 L62 L63 L64 L65 L66 L67 L68 L65 L66 L67 L68 L61 L62 L63 L64 L61 L62 L63 L64 L65 L66"/>
    </vehicle>


    <vehicle id="0" depart="20.00">
        <route edges="L62 L63 L64 L65 L66 L67 L68 L61 L62 L63 L64 L65 L66 L67 L68 L61 L62 L63 L64 L65 L66 L67 L68 L61 L62 L63 L64 L65 L66 L67 L68 L61 L62 L63 L64 L65 L66 L67 L68 L61 L62 L63 L64 L65 L66 L67 L68 L61 L62"/>
    </vehicle>

    <vehicle id="1" depart="20.00">
        <route edges="L62 L63 L64 L65 L66 L67 L68 L61 L62 L63 L64 L65 L66 L67 L68 L61 L62 L63 L64 L65 L66 L67 L68 L61 L62 L63 L64 L65 L66 L67 L68 L61 L62 L63 L64 L65 L66 L67 L68 L61 L62 L63 L64 L65 L66 L67 L68 L61 L62"/>
    </vehicle>

    <vehicle id="2" depart="20.00">
        <route edges="L62 L63 L64 L65 L66 L67 L68 L61 L62 L63 L64 L65 L66 L67 L68 L61 L62 L63 L64 L65 L66 L67 L68 L61 L62 L63 L64 L65 L66 L67 L68 L61 L62 L63 L64 L65 L66 L67 L68 L61 L62 L63 L64 L65 L66 L67 L68 L61 L62"/>
    </vehicle>

    <vehicle id="3" depart="20.00">
        <route edges="L62 L63 L64 L65 L66 L67 L68 L61 L62 L63 L64 L65 L66 L67 L68 L61 L62 L63 L64 L65 L66 L67 L68 L61 L62 L63 L64 L65 L66 L67 L68 L61 L62 L63 L64 L65 L66 L67 L68 L61 L62 L63 L64 L65 L66 L67 L68 L61 L62"/>
    </vehicle>

    <!--<flow id="type1" color="1,1,0"  begin="0" end= "7200" probability="0.02">-->
        <!--<route edges="L63 L64 L65 L66 L67 L68 L61 L62 L63 L64 L65 L66 L67 L68 L61 L62 L63 L64 L65 L66 L67 L68 L61 L62"/>-->
    <!--</flow>-->

    <!---->
    <!--<flow id="type2" color="1,0,1"  begin="0" end= "7200" probability="0.01">-->
        <!--<route edges="L67 L68 L61 L62 L63 L64 L65 L66 L67 L68 L61 L62 L63 L64 L65 L66 L67 L68 L61 L62 L63 L64 L65 L66"/>-->
    <!--</flow>-->
</routes>
