<?xml version="1.0" encoding="UTF-8"?>
<edges xmlns:xsi="http://www.w3.org/2001/XMLSchema-instance" xsi:noNamespaceSchemaLocation="http://sumo.dlr.de/xsd/edges_file.xsd">
    <edge id="L61" from="0" to="2" type="a"/>
    <edge id="L62" from="2" to="3" type="a"/>
    <edge id="L63" from="3" to="4" type="a"/>
    <edge id="L64" from="4" to="0" type="a"/>

    <edge id="L65" from="0" to="5" type="a"/>
    <edge id="L66" from="5" to="6" type="a"/>
    <edge id="L67" from="6" to="7" type="a"/>
    <edge id="L68" from="7" to="0" type="a"/>
</edges>
