<?xml version="1.0" encoding="UTF-8"?>

<!-- generated on Wed May 29 17:15:03 2019 by Eclipse SUMO netconvert Version 1.2.0
<configuration xmlns:xsi="http://www.w3.org/2001/XMLSchema-instance" xsi:noNamespaceSchemaLocation="http://sumo.dlr.de/xsd/netconvertConfiguration.xsd">

    <input>
        <node-files value="sample.nod.xml"/>
        <edge-files value="sample.edg.xml"/>
        <connection-files value="sample.con.xml"/>
        <type-files value="sample.typ.xml"/>
    </input>

    <output>
        <output-file value="sample.net.xml"/>
    </output>

</configuration>
-->

<net version="1.1" junctionCornerDetail="5" limitTurnSpeed="5.50" xmlns:xsi="http://www.w3.org/2001/XMLSchema-instance" xsi:noNamespaceSchemaLocation="http://sumo.dlr.de/xsd/net_file.xsd">

    <location netOffset="0.00,0.00" convBoundary="0.00,0.00,100.00,100.00" origBoundary="0.00,0.00,100.00,100.00" projParameter="!"/>

    <type id="a" priority="3" numLanes="1" speed="8.30"/>

    <edge id=":0_0" function="internal">
        <lane id=":0_0_0" index="0" speed="8.30" length="11.20" shape="38.40,44.00 38.40,32.80"/>
    </edge>
    <edge id=":0_1" function="internal">
        <lane id=":0_1_0" index="0" speed="8.30" length="9.03" shape="38.40,44.00 38.75,41.55 39.80,39.80 41.55,38.75 44.00,38.40"/>
    </edge>
    <edge id=":0_2" function="internal">
        <lane id=":0_2_0" index="0" speed="8.30" length="9.03" shape="32.80,38.40 35.25,38.05 37.00,37.00 38.05,35.25 38.40,32.80"/>
    </edge>
    <edge id=":0_3" function="internal">
        <lane id=":0_3_0" index="0" speed="8.30" length="11.20" shape="32.80,38.40 44.00,38.40"/>
    </edge>
    <edge id=":2_0" function="internal">
        <lane id=":2_0_0" index="0" speed="8.30" length="2.58" shape="38.40,3.20 38.30,2.50 38.00,2.00 37.50,1.70 36.80,1.60"/>
    </edge>
    <edge id=":3_0" function="internal">
        <lane id=":3_0_0" index="0" speed="8.30" length="2.58" shape="3.20,1.60 2.50,1.70 2.00,2.00 1.70,2.50 1.60,3.20"/>
    </edge>
    <edge id=":4_0" function="internal">
        <lane id=":4_0_0" index="0" speed="8.30" length="2.58" shape="1.60,36.80 1.70,37.50 2.00,38.00 2.50,38.30 3.20,38.40"/>
    </edge>
    <edge id=":5_0" function="internal">
        <lane id=":5_0_0" index="0" speed="8.30" length="2.58" shape="100.00,38.40 100.70,38.50 101.20,38.80 101.50,39.30 101.60,40.00"/>
    </edge>
    <edge id=":6_0" function="internal">
        <lane id=":6_0_0" index="0" speed="8.30" length="2.58" shape="101.60,100.00 101.50,100.70 101.20,101.20 100.70,101.50 100.00,101.60"/>
    </edge>
    <edge id=":7_0" function="internal">
        <lane id=":7_0_0" index="0" speed="8.30" length="2.58" shape="40.00,101.60 39.30,101.50 38.80,101.20 38.50,100.70 38.40,100.00"/>
    </edge>

    <edge id="L61" from="0" to="2" priority="3" type="a">
        <lane id="L61_0" index="0" speed="8.30" length="29.60" shape="38.40,32.80 38.40,3.20"/>
    </edge>
    <edge id="L62" from="2" to="3" priority="3" type="a">
        <lane id="L62_0" index="0" speed="8.30" length="33.60" shape="36.80,1.60 3.20,1.60"/>
    </edge>
    <edge id="L63" from="3" to="4" priority="3" type="a">
        <lane id="L63_0" index="0" speed="8.30" length="33.60" shape="1.60,3.20 1.60,36.80"/>
    </edge>
    <edge id="L64" from="4" to="0" priority="3" type="a">
        <lane id="L64_0" index="0" speed="8.30" length="29.60" shape="3.20,38.40 32.80,38.40"/>
    </edge>
    <edge id="L65" from="0" to="5" priority="3" type="a">
        <lane id="L65_0" index="0" speed="8.30" length="56.00" shape="44.00,38.40 100.00,38.40"/>
    </edge>
    <edge id="L66" from="5" to="6" priority="3" type="a">
        <lane id="L66_0" index="0" speed="8.30" length="60.00" shape="101.60,40.00 101.60,100.00"/>
    </edge>
    <edge id="L67" from="6" to="7" priority="3" type="a">
        <lane id="L67_0" index="0" speed="8.30" length="60.00" shape="100.00,101.60 40.00,101.60"/>
    </edge>
    <edge id="L68" from="7" to="0" priority="3" type="a">
        <lane id="L68_0" index="0" speed="8.30" length="56.00" shape="38.40,100.00 38.40,44.00"/>
    </edge>

    <tlLogic id="0" type="static" programID="0" offset="0">
        <phase duration="42" state="GGrr"/>
        <phase duration="3"  state="yyrr"/>
        <phase duration="42" state="rrGG"/>
        <phase duration="3"  state="rryy"/>
    </tlLogic>

    <junction id="0" type="traffic_light" x="40.00" y="40.00" incLanes="L68_0 L64_0" intLanes=":0_0_0 :0_1_0 :0_2_0 :0_3_0" shape="36.80,44.00 40.00,44.00 40.44,41.78 41.00,41.00 41.78,40.44 42.78,40.11 44.00,40.00 44.00,36.80 41.78,36.36 41.00,35.80 40.44,35.02 40.11,34.02 40.00,32.80 36.80,32.80 36.36,35.02 35.80,35.80 35.02,36.36 34.02,36.69 32.80,36.80 32.80,40.00 35.02,40.44 35.80,41.00 36.36,41.78 36.69,42.78">
        <request index="0" response="1100" foes="1100" cont="0"/>
        <request index="1" response="1000" foes="1000" cont="0"/>
        <request index="2" response="0000" foes="0001" cont="0"/>
        <request index="3" response="0000" foes="0011" cont="0"/>
    </junction>
    <junction id="2" type="priority" x="40.00" y="0.00" incLanes="L61_0" intLanes=":2_0_0" shape="36.80,3.20 40.00,3.20 39.64,1.42 39.20,0.80 38.58,0.36 37.78,0.09 36.80,0.00">
        <request index="0" response="0" foes="0" cont="0"/>
    </junction>
    <junction id="3" type="priority" x="0.00" y="0.00" incLanes="L62_0" intLanes=":3_0_0" shape="0.00,3.20 3.20,3.20 3.20,0.00 1.42,0.36 0.80,0.80 0.36,1.42 0.09,2.22">
        <request index="0" response="0" foes="0" cont="0"/>
    </junction>
    <junction id="4" type="priority" x="0.00" y="40.00" incLanes="L63_0" intLanes=":4_0_0" shape="3.20,40.00 3.20,36.80 0.00,36.80 0.36,38.58 0.80,39.20 1.42,39.64 2.22,39.91">
        <request index="0" response="0" foes="0" cont="0"/>
    </junction>
    <junction id="5" type="priority" x="100.00" y="40.00" incLanes="L65_0" intLanes=":5_0_0" shape="100.00,40.00 103.20,40.00 102.84,38.22 102.40,37.60 101.78,37.16 100.98,36.89 100.00,36.80">
        <request index="0" response="0" foes="0" cont="0"/>
    </junction>
    <junction id="6" type="priority" x="100.00" y="100.00" incLanes="L66_0" intLanes=":6_0_0" shape="103.20,100.00 100.00,100.00 100.00,103.20 101.78,102.84 102.40,102.40 102.84,101.78 103.11,100.98">
        <request index="0" response="0" foes="0" cont="0"/>
    </junction>
    <junction id="7" type="priority" x="40.00" y="100.00" incLanes="L67_0" intLanes=":7_0_0" shape="40.00,103.20 40.00,100.00 36.80,100.00 37.16,101.78 37.60,102.40 38.22,102.84 39.02,103.11">
        <request index="0" response="0" foes="0" cont="0"/>
    </junction>

    <connection from="L61" to="L62" fromLane="0" toLane="0" speed="8.30" via=":2_0_0" dir="r" state="M"/>
    <connection from="L62" to="L63" fromLane="0" toLane="0" speed="8.30" via=":3_0_0" dir="r" state="M"/>
    <connection from="L63" to="L64" fromLane="0" toLane="0" speed="8.30" via=":4_0_0" dir="r" state="M"/>
    <connection from="L64" to="L61" fromLane="0" toLane="0" speed="8.30" via=":0_2_0" tl="0" linkIndex="2" dir="r" state="O"/>
    <connection from="L64" to="L65" fromLane="0" toLane="0" speed="8.30" via=":0_3_0" tl="0" linkIndex="3" dir="s" state="O"/>
    <connection from="L65" to="L66" fromLane="0" toLane="0" speed="8.30" via=":5_0_0" dir="l" state="M"/>
    <connection from="L66" to="L67" fromLane="0" toLane="0" speed="8.30" via=":6_0_0" dir="l" state="M"/>
    <connection from="L67" to="L68" fromLane="0" toLane="0" speed="8.30" via=":7_0_0" dir="l" state="M"/>
    <connection from="L68" to="L61" fromLane="0" toLane="0" speed="8.30" via=":0_0_0" tl="0" linkIndex="0" dir="s" state="o"/>
    <connection from="L68" to="L65" fromLane="0" toLane="0" speed="8.30" via=":0_1_0" tl="0" linkIndex="1" dir="l" state="o"/>

    <connection from=":0_0" to="L61" fromLane="0" toLane="0" dir="s" state="M"/>
    <connection from=":0_1" to="L65" fromLane="0" toLane="0" dir="l" state="M"/>
    <connection from=":0_2" to="L61" fromLane="0" toLane="0" dir="r" state="M"/>
    <connection from=":0_3" to="L65" fromLane="0" toLane="0" dir="s" state="M"/>
    <connection from=":2_0" to="L62" fromLane="0" toLane="0" dir="r" state="M"/>
    <connection from=":3_0" to="L63" fromLane="0" toLane="0" dir="r" state="M"/>
    <connection from=":4_0" to="L64" fromLane="0" toLane="0" dir="r" state="M"/>
    <connection from=":5_0" to="L66" fromLane="0" toLane="0" dir="l" state="M"/>
    <connection from=":6_0" to="L67" fromLane="0" toLane="0" dir="l" state="M"/>
    <connection from=":7_0" to="L68" fromLane="0" toLane="0" dir="l" state="M"/>

</net>
