<?xml version="1.0" encoding="UTF-8"?>
<types>
   <!-- Dumb loop -->
   <type id="a" priority="3" numLanes="1" speed="8.3"/>
</types>
