<configuration>
    <input>
        <net-file value="sample.net.xml"/>
        <route-files value="routes.rou.xml"/>
        <gui-settings-file value="gui-settings.cfg"/>
    </input>
    <time>
        <begin value="0"/>
    </time>

    <report>
        <verbose value="true"/>
        <no-step-log value="true"/>
    </report>
</configuration>
