<routes>

    <route id="0_1" edges="510_10 10_0 0_1 1_21 21_521"/>
    <route id="1_0" edges="521_21 21_1 1_0 0_10 10_510"/>
    <route id="2_3" edges="512_12 12_2 2_3 3_23 23_523"/>
    <route id="3_2" edges="523_23 23_3 3_2 2_12 12_512"/>
    <route id="0_2" edges="530_30 30_0 0_2 2_42 42_542"/>
    <route id="2_0" edges="542_42 42_2 2_0 0_30 30_530"/>
    <route id="1_3" edges="531_31 31_1 1_3 3_43 43_543"/>
    <route id="3_1" edges="543_43 43_3 3_1 1_31 31_531"/>

    <vehicle id="0_1_0" route="0_1" depart="0" />
    <vehicle id="1_3_2" route="1_3" depart="2" />
    <vehicle id="2_0_4" route="2_0" depart="4" />
    <vehicle id="1_3_6" route="1_3" depart="6" />
    <vehicle id="0_2_9" route="0_2" depart="9" />
    <vehicle id="3_1_10" route="3_1" depart="10" />
    <vehicle id="3_2_13" route="3_2" depart="13" />
    <vehicle id="3_1_14" route="3_1" depart="14" />
    <vehicle id="1_0_15" route="1_0" depart="15" />
    <vehicle id="3_2_20" route="3_2" depart="20" />
    <vehicle id="1_0_22" route="1_0" depart="22" />
    <vehicle id="2_0_26" route="2_0" depart="26" />
    <vehicle id="1_3_32" route="1_3" depart="32" />
    <vehicle id="0_2_34" route="0_2" depart="34" />
    <vehicle id="0_1_40" route="0_1" depart="40" />
    <vehicle id="2_0_41" route="2_0" depart="41" />
    <vehicle id="2_3_42" route="2_3" depart="42" />
    <vehicle id="2_3_43" route="2_3" depart="43" />
    <vehicle id="1_0_44" route="1_0" depart="44" />
    <vehicle id="0_1_46" route="0_1" depart="46" />
    <vehicle id="3_1_47" route="3_1" depart="47" />
    <vehicle id="3_1_49" route="3_1" depart="49" />
    <vehicle id="1_0_50" route="1_0" depart="50" />
    <vehicle id="1_3_53" route="1_3" depart="53" />
    <vehicle id="2_0_54" route="2_0" depart="54" />
    <vehicle id="2_3_55" route="2_3" depart="55" />
    <vehicle id="1_3_62" route="1_3" depart="62" />
    <vehicle id="2_3_64" route="2_3" depart="64" />
    <vehicle id="3_1_66" route="3_1" depart="66" />
    <vehicle id="3_1_69" route="3_1" depart="69" />
    <vehicle id="0_2_72" route="0_2" depart="72" />
    <vehicle id="0_1_75" route="0_1" depart="75" />
    <vehicle id="1_0_80" route="1_0" depart="80" />
    <vehicle id="2_0_82" route="2_0" depart="82" />
    <vehicle id="3_2_86" route="3_2" depart="86" />
    <vehicle id="0_1_92" route="0_1" depart="92" />
    <vehicle id="2_3_96" route="2_3" depart="96" />
    <vehicle id="0_2_97" route="0_2" depart="97" />
    <vehicle id="3_1_98" route="3_1" depart="98" />
    <vehicle id="1_0_99" route="1_0" depart="99" />
    <vehicle id="0_2_103" route="0_2" depart="103" />
    <vehicle id="0_2_108" route="0_2" depart="108" />
    <vehicle id="0_2_112" route="0_2" depart="112" />
    <vehicle id="3_1_113" route="3_1" depart="113" />
    <vehicle id="3_1_119" route="3_1" depart="119" />
    <vehicle id="2_0_121" route="2_0" depart="121" />
    <vehicle id="1_0_123" route="1_0" depart="123" />
    <vehicle id="0_1_124" route="0_1" depart="124" />
    <vehicle id="3_2_128" route="3_2" depart="128" />
    <vehicle id="2_3_132" route="2_3" depart="132" />
    <vehicle id="1_3_137" route="1_3" depart="137" />
    <vehicle id="0_1_139" route="0_1" depart="139" />
    <vehicle id="1_3_140" route="1_3" depart="140" />
    <vehicle id="0_2_143" route="0_2" depart="143" />
    <vehicle id="1_3_144" route="1_3" depart="144" />
    <vehicle id="2_0_145" route="2_0" depart="145" />
    <vehicle id="3_2_146" route="3_2" depart="146" />
    <vehicle id="3_1_147" route="3_1" depart="147" />
    <vehicle id="2_3_149" route="2_3" depart="149" />
    <vehicle id="1_0_150" route="1_0" depart="150" />
    <vehicle id="2_3_151" route="2_3" depart="151" />
    <vehicle id="0_1_152" route="0_1" depart="152" />
    <vehicle id="2_0_153" route="2_0" depart="153" />
    <vehicle id="1_0_160" route="1_0" depart="160" />
    <vehicle id="2_3_162" route="2_3" depart="162" />
    <vehicle id="3_1_166" route="3_1" depart="166" />
    <vehicle id="2_3_167" route="2_3" depart="167" />
    <vehicle id="2_3_168" route="2_3" depart="168" />
    <vehicle id="3_1_172" route="3_1" depart="172" />
    <vehicle id="2_3_174" route="2_3" depart="174" />
    <vehicle id="1_3_177" route="1_3" depart="177" />
    <vehicle id="3_2_178" route="3_2" depart="178" />
    <vehicle id="3_1_179" route="3_1" depart="179" />
    <vehicle id="3_2_181" route="3_2" depart="181" />
    <vehicle id="3_1_183" route="3_1" depart="183" />
    <vehicle id="1_0_184" route="1_0" depart="184" />
    <vehicle id="1_0_187" route="1_0" depart="187" />
    <vehicle id="1_0_189" route="1_0" depart="189" />
    <vehicle id="1_3_194" route="1_3" depart="194" />
    <vehicle id="0_1_209" route="0_1" depart="209" />
    <vehicle id="0_1_212" route="0_1" depart="212" />
    <vehicle id="1_0_213" route="1_0" depart="213" />
    <vehicle id="3_1_217" route="3_1" depart="217" />
    <vehicle id="1_3_218" route="1_3" depart="218" />
    <vehicle id="0_1_222" route="0_1" depart="222" />
    <vehicle id="2_3_227" route="2_3" depart="227" />
    <vehicle id="0_2_231" route="0_2" depart="231" />
    <vehicle id="1_0_233" route="1_0" depart="233" />
    <vehicle id="3_2_237" route="3_2" depart="237" />
    <vehicle id="3_1_248" route="3_1" depart="248" />
    <vehicle id="2_0_254" route="2_0" depart="254" />
    <vehicle id="2_0_256" route="2_0" depart="256" />
    <vehicle id="2_3_260" route="2_3" depart="260" />
    <vehicle id="0_1_261" route="0_1" depart="261" />
    <vehicle id="3_2_262" route="3_2" depart="262" />
    <vehicle id="2_0_263" route="2_0" depart="263" />
    <vehicle id="1_3_265" route="1_3" depart="265" />
    <vehicle id="2_0_266" route="2_0" depart="266" />
    <vehicle id="0_1_267" route="0_1" depart="267" />
    <vehicle id="0_2_270" route="0_2" depart="270" />
    <vehicle id="0_2_278" route="0_2" depart="278" />
    <vehicle id="1_3_281" route="1_3" depart="281" />
    <vehicle id="1_0_285" route="1_0" depart="285" />
    <vehicle id="0_2_288" route="0_2" depart="288" />
    <vehicle id="2_0_289" route="2_0" depart="289" />
    <vehicle id="1_3_290" route="1_3" depart="290" />
    <vehicle id="2_3_291" route="2_3" depart="291" />
    <vehicle id="3_2_292" route="3_2" depart="292" />
    <vehicle id="3_1_294" route="3_1" depart="294" />
    <vehicle id="1_3_295" route="1_3" depart="295" />
    <vehicle id="0_1_296" route="0_1" depart="296" />
    <vehicle id="2_0_298" route="2_0" depart="298" />
    <vehicle id="2_3_299" route="2_3" depart="299" />
    <vehicle id="2_3_300" route="2_3" depart="300" />
    <vehicle id="3_2_304" route="3_2" depart="304" />
    <vehicle id="3_1_315" route="3_1" depart="315" />
    <vehicle id="1_0_316" route="1_0" depart="316" />
    <vehicle id="2_0_317" route="2_0" depart="317" />
    <vehicle id="2_3_319" route="2_3" depart="319" />
    <vehicle id="2_3_320" route="2_3" depart="320" />
    <vehicle id="3_2_324" route="3_2" depart="324" />
    <vehicle id="2_3_325" route="2_3" depart="325" />
    <vehicle id="3_2_327" route="3_2" depart="327" />
    <vehicle id="0_1_329" route="0_1" depart="329" />
    <vehicle id="0_1_334" route="0_1" depart="334" />
    <vehicle id="0_1_335" route="0_1" depart="335" />
    <vehicle id="0_2_337" route="0_2" depart="337" />
    <vehicle id="3_2_338" route="3_2" depart="338" />
    <vehicle id="1_0_339" route="1_0" depart="339" />
    <vehicle id="3_1_340" route="3_1" depart="340" />
    <vehicle id="0_2_341" route="0_2" depart="341" />
    <vehicle id="0_2_343" route="0_2" depart="343" />
    <vehicle id="1_3_344" route="1_3" depart="344" />
    <vehicle id="1_0_345" route="1_0" depart="345" />
    <vehicle id="0_2_348" route="0_2" depart="348" />
    <vehicle id="3_1_349" route="3_1" depart="349" />
    <vehicle id="1_3_350" route="1_3" depart="350" />
    <vehicle id="2_0_351" route="2_0" depart="351" />
    <vehicle id="3_2_352" route="3_2" depart="352" />
    <vehicle id="3_1_354" route="3_1" depart="354" />
    <vehicle id="2_3_355" route="2_3" depart="355" />
    <vehicle id="2_3_356" route="2_3" depart="356" />
    <vehicle id="1_3_359" route="1_3" depart="359" />
    <vehicle id="3_1_362" route="3_1" depart="362" />
    <vehicle id="3_2_369" route="3_2" depart="369" />
    <vehicle id="3_2_370" route="3_2" depart="370" />
    <vehicle id="3_1_371" route="3_1" depart="371" />
    <vehicle id="1_0_375" route="1_0" depart="375" />
    <vehicle id="0_2_377" route="0_2" depart="377" />
    <vehicle id="0_2_379" route="0_2" depart="379" />
    <vehicle id="1_0_384" route="1_0" depart="384" />
    <vehicle id="3_2_385" route="3_2" depart="385" />
    <vehicle id="2_3_386" route="2_3" depart="386" />
    <vehicle id="3_1_388" route="3_1" depart="388" />
    <vehicle id="1_3_389" route="1_3" depart="389" />
    <vehicle id="2_3_394" route="2_3" depart="394" />
    <vehicle id="3_2_395" route="3_2" depart="395" />
    <vehicle id="0_2_401" route="0_2" depart="401" />
    <vehicle id="2_0_402" route="2_0" depart="402" />
    <vehicle id="1_3_403" route="1_3" depart="403" />
    <vehicle id="0_2_409" route="0_2" depart="409" />
    <vehicle id="3_1_413" route="3_1" depart="413" />
    <vehicle id="3_1_414" route="3_1" depart="414" />
    <vehicle id="2_3_415" route="2_3" depart="415" />
    <vehicle id="2_0_419" route="2_0" depart="419" />
    <vehicle id="1_3_420" route="1_3" depart="420" />
    <vehicle id="2_3_422" route="2_3" depart="422" />
    <vehicle id="0_2_426" route="0_2" depart="426" />
    <vehicle id="0_1_432" route="0_1" depart="432" />
    <vehicle id="1_0_434" route="1_0" depart="434" />
    <vehicle id="2_3_437" route="2_3" depart="437" />
    <vehicle id="3_2_438" route="3_2" depart="438" />
    <vehicle id="2_3_439" route="2_3" depart="439" />
    <vehicle id="0_2_440" route="0_2" depart="440" />
    <vehicle id="2_0_442" route="2_0" depart="442" />
    <vehicle id="3_1_446" route="3_1" depart="446" />
    <vehicle id="1_3_447" route="1_3" depart="447" />
    <vehicle id="2_3_449" route="2_3" depart="449" />
    <vehicle id="2_3_452" route="2_3" depart="452" />
    <vehicle id="3_1_453" route="3_1" depart="453" />
    <vehicle id="3_2_454" route="3_2" depart="454" />
    <vehicle id="0_1_458" route="0_1" depart="458" />
    <vehicle id="2_3_464" route="2_3" depart="464" />
    <vehicle id="1_3_465" route="1_3" depart="465" />
    <vehicle id="2_0_466" route="2_0" depart="466" />
    <vehicle id="2_3_469" route="2_3" depart="469" />
    <vehicle id="2_3_473" route="2_3" depart="473" />
    <vehicle id="2_3_474" route="2_3" depart="474" />
    <vehicle id="0_1_481" route="0_1" depart="481" />
    <vehicle id="1_3_491" route="1_3" depart="491" />
    <vehicle id="2_3_492" route="2_3" depart="492" />
    <vehicle id="1_0_495" route="1_0" depart="495" />
    <vehicle id="3_1_496" route="3_1" depart="496" />
    <vehicle id="2_3_497" route="2_3" depart="497" />
    <vehicle id="1_3_498" route="1_3" depart="498" />
    <vehicle id="2_0_500" route="2_0" depart="500" />
    <vehicle id="1_0_501" route="1_0" depart="501" />
    <vehicle id="2_0_502" route="2_0" depart="502" />
    <vehicle id="2_0_504" route="2_0" depart="504" />
    <vehicle id="2_0_505" route="2_0" depart="505" />
    <vehicle id="0_2_512" route="0_2" depart="512" />
    <vehicle id="1_3_513" route="1_3" depart="513" />
    <vehicle id="2_0_516" route="2_0" depart="516" />
    <vehicle id="0_1_517" route="0_1" depart="517" />
    <vehicle id="0_1_520" route="0_1" depart="520" />
    <vehicle id="2_0_522" route="2_0" depart="522" />
    <vehicle id="0_1_527" route="0_1" depart="527" />
    <vehicle id="0_1_529" route="0_1" depart="529" />
    <vehicle id="2_0_533" route="2_0" depart="533" />
    <vehicle id="1_3_540" route="1_3" depart="540" />
    <vehicle id="2_3_541" route="2_3" depart="541" />
    <vehicle id="1_3_542" route="1_3" depart="542" />
    <vehicle id="2_0_544" route="2_0" depart="544" />
    <vehicle id="2_0_545" route="2_0" depart="545" />
    <vehicle id="3_2_549" route="3_2" depart="549" />
    <vehicle id="1_3_552" route="1_3" depart="552" />
    <vehicle id="2_3_553" route="2_3" depart="553" />
    <vehicle id="2_3_554" route="2_3" depart="554" />
    <vehicle id="0_2_556" route="0_2" depart="556" />
    <vehicle id="2_3_559" route="2_3" depart="559" />
    <vehicle id="3_2_562" route="3_2" depart="562" />
    <vehicle id="1_0_564" route="1_0" depart="564" />
    <vehicle id="2_3_565" route="2_3" depart="565" />
    <vehicle id="0_2_567" route="0_2" depart="567" />
    <vehicle id="1_3_571" route="1_3" depart="571" />
    <vehicle id="2_3_575" route="2_3" depart="575" />
    <vehicle id="2_0_576" route="2_0" depart="576" />
    <vehicle id="2_3_578" route="2_3" depart="578" />
    <vehicle id="0_1_579" route="0_1" depart="579" />
    <vehicle id="2_0_580" route="2_0" depart="580" />
    <vehicle id="0_1_581" route="0_1" depart="581" />
    <vehicle id="0_1_582" route="0_1" depart="582" />
    <vehicle id="3_2_583" route="3_2" depart="583" />
    <vehicle id="0_2_584" route="0_2" depart="584" />
    <vehicle id="3_2_585" route="3_2" depart="585" />
    <vehicle id="2_0_586" route="2_0" depart="586" />
    <vehicle id="0_2_588" route="0_2" depart="588" />
    <vehicle id="1_0_589" route="1_0" depart="589" />
    <vehicle id="2_0_594" route="2_0" depart="594" />
    <vehicle id="0_2_596" route="0_2" depart="596" />
    <vehicle id="0_1_597" route="0_1" depart="597" />
    <vehicle id="1_0_599" route="1_0" depart="599" />
    <vehicle id="0_1_600" route="0_1" depart="600" />
    <vehicle id="1_3_601" route="1_3" depart="601" />
    <vehicle id="3_1_602" route="3_1" depart="602" />
    <vehicle id="1_3_603" route="1_3" depart="603" />
    <vehicle id="0_1_604" route="0_1" depart="604" />
    <vehicle id="2_3_610" route="2_3" depart="610" />
    <vehicle id="1_0_618" route="1_0" depart="618" />
    <vehicle id="3_2_619" route="3_2" depart="619" />
    <vehicle id="3_2_620" route="3_2" depart="620" />
    <vehicle id="1_0_621" route="1_0" depart="621" />
    <vehicle id="3_1_622" route="3_1" depart="622" />
    <vehicle id="1_0_623" route="1_0" depart="623" />
    <vehicle id="0_2_625" route="0_2" depart="625" />
    <vehicle id="3_1_626" route="3_1" depart="626" />
    <vehicle id="0_1_628" route="0_1" depart="628" />
    <vehicle id="2_3_629" route="2_3" depart="629" />
    <vehicle id="3_1_630" route="3_1" depart="630" />
    <vehicle id="0_2_636" route="0_2" depart="636" />
    <vehicle id="1_0_637" route="1_0" depart="637" />
    <vehicle id="3_1_638" route="3_1" depart="638" />
    <vehicle id="2_3_641" route="2_3" depart="641" />
    <vehicle id="0_1_642" route="0_1" depart="642" />
    <vehicle id="3_2_645" route="3_2" depart="645" />
    <vehicle id="1_3_646" route="1_3" depart="646" />
    <vehicle id="0_1_654" route="0_1" depart="654" />
    <vehicle id="0_1_657" route="0_1" depart="657" />
    <vehicle id="0_2_660" route="0_2" depart="660" />
    <vehicle id="3_1_662" route="3_1" depart="662" />
    <vehicle id="2_0_670" route="2_0" depart="670" />
    <vehicle id="3_2_672" route="3_2" depart="672" />
    <vehicle id="2_0_674" route="2_0" depart="674" />
    <vehicle id="1_3_676" route="1_3" depart="676" />
    <vehicle id="1_3_677" route="1_3" depart="677" />
    <vehicle id="2_3_679" route="2_3" depart="679" />
    <vehicle id="3_2_680" route="3_2" depart="680" />
    <vehicle id="1_0_682" route="1_0" depart="682" />
    <vehicle id="1_0_684" route="1_0" depart="684" />
    <vehicle id="0_1_690" route="0_1" depart="690" />
    <vehicle id="2_0_691" route="2_0" depart="691" />
    <vehicle id="0_1_695" route="0_1" depart="695" />
    <vehicle id="3_1_698" route="3_1" depart="698" />
    <vehicle id="2_3_699" route="2_3" depart="699" />
    <vehicle id="2_3_702" route="2_3" depart="702" />
    <vehicle id="0_2_703" route="0_2" depart="703" />
    <vehicle id="3_1_707" route="3_1" depart="707" />
    <vehicle id="1_3_708" route="1_3" depart="708" />
    <vehicle id="0_2_709" route="0_2" depart="709" />
    <vehicle id="3_1_714" route="3_1" depart="714" />
    <vehicle id="1_3_716" route="1_3" depart="716" />
    <vehicle id="3_2_718" route="3_2" depart="718" />
    <vehicle id="1_0_721" route="1_0" depart="721" />
    <vehicle id="2_3_722" route="2_3" depart="722" />
    <vehicle id="1_3_723" route="1_3" depart="723" />
    <vehicle id="1_0_724" route="1_0" depart="724" />
    <vehicle id="0_1_728" route="0_1" depart="728" />
    <vehicle id="2_3_729" route="2_3" depart="729" />
    <vehicle id="2_0_733" route="2_0" depart="733" />
    <vehicle id="0_1_737" route="0_1" depart="737" />
    <vehicle id="2_0_738" route="2_0" depart="738" />
    <vehicle id="0_1_740" route="0_1" depart="740" />
    <vehicle id="3_2_743" route="3_2" depart="743" />
    <vehicle id="2_3_744" route="2_3" depart="744" />
    <vehicle id="2_0_746" route="2_0" depart="746" />
    <vehicle id="1_0_747" route="1_0" depart="747" />
    <vehicle id="3_1_750" route="3_1" depart="750" />
    <vehicle id="2_0_754" route="2_0" depart="754" />
    <vehicle id="3_2_755" route="3_2" depart="755" />
    <vehicle id="2_0_756" route="2_0" depart="756" />
    <vehicle id="3_2_772" route="3_2" depart="772" />
    <vehicle id="3_1_775" route="3_1" depart="775" />
    <vehicle id="0_1_776" route="0_1" depart="776" />
    <vehicle id="0_2_778" route="0_2" depart="778" />
    <vehicle id="3_2_781" route="3_2" depart="781" />
    <vehicle id="2_0_785" route="2_0" depart="785" />
    <vehicle id="1_0_788" route="1_0" depart="788" />
    <vehicle id="2_0_793" route="2_0" depart="793" />
    <vehicle id="3_1_794" route="3_1" depart="794" />
    <vehicle id="2_0_795" route="2_0" depart="795" />
    <vehicle id="2_3_796" route="2_3" depart="796" />
    <vehicle id="2_3_800" route="2_3" depart="800" />
    <vehicle id="1_0_803" route="1_0" depart="803" />
    <vehicle id="2_3_805" route="2_3" depart="805" />
    <vehicle id="3_1_806" route="3_1" depart="806" />
    <vehicle id="2_0_808" route="2_0" depart="808" />
    <vehicle id="3_2_814" route="3_2" depart="814" />
    <vehicle id="1_0_820" route="1_0" depart="820" />
    <vehicle id="3_1_825" route="3_1" depart="825" />
    <vehicle id="0_1_827" route="0_1" depart="827" />
    <vehicle id="0_2_830" route="0_2" depart="830" />
    <vehicle id="1_3_831" route="1_3" depart="831" />
    <vehicle id="3_1_832" route="3_1" depart="832" />
    <vehicle id="2_3_835" route="2_3" depart="835" />
    <vehicle id="3_1_836" route="3_1" depart="836" />
    <vehicle id="1_0_839" route="1_0" depart="839" />
    <vehicle id="0_2_840" route="0_2" depart="840" />
    <vehicle id="3_2_842" route="3_2" depart="842" />
    <vehicle id="3_2_844" route="3_2" depart="844" />
    <vehicle id="2_0_845" route="2_0" depart="845" />
    <vehicle id="1_3_847" route="1_3" depart="847" />
    <vehicle id="2_0_848" route="2_0" depart="848" />
    <vehicle id="3_1_852" route="3_1" depart="852" />
    <vehicle id="1_3_853" route="1_3" depart="853" />
    <vehicle id="1_0_854" route="1_0" depart="854" />
    <vehicle id="2_0_858" route="2_0" depart="858" />
    <vehicle id="2_0_860" route="2_0" depart="860" />
    <vehicle id="3_2_861" route="3_2" depart="861" />
    <vehicle id="0_1_862" route="0_1" depart="862" />
    <vehicle id="3_1_864" route="3_1" depart="864" />
    <vehicle id="2_3_865" route="2_3" depart="865" />
    <vehicle id="0_1_866" route="0_1" depart="866" />
    <vehicle id="1_0_867" route="1_0" depart="867" />
    <vehicle id="3_2_871" route="3_2" depart="871" />
    <vehicle id="0_2_872" route="0_2" depart="872" />
    <vehicle id="1_3_874" route="1_3" depart="874" />
    <vehicle id="3_1_876" route="3_1" depart="876" />
    <vehicle id="1_0_877" route="1_0" depart="877" />
    <vehicle id="2_3_879" route="2_3" depart="879" />
    <vehicle id="3_2_882" route="3_2" depart="882" />
    <vehicle id="3_2_885" route="3_2" depart="885" />
    <vehicle id="2_0_886" route="2_0" depart="886" />
    <vehicle id="0_1_890" route="0_1" depart="890" />
    <vehicle id="1_3_891" route="1_3" depart="891" />
    <vehicle id="3_1_898" route="3_1" depart="898" />
    <vehicle id="3_2_902" route="3_2" depart="902" />
    <vehicle id="3_2_903" route="3_2" depart="903" />
    <vehicle id="0_2_905" route="0_2" depart="905" />
    <vehicle id="2_3_908" route="2_3" depart="908" />
    <vehicle id="1_3_911" route="1_3" depart="911" />
    <vehicle id="1_0_912" route="1_0" depart="912" />
    <vehicle id="0_2_916" route="0_2" depart="916" />
    <vehicle id="0_1_920" route="0_1" depart="920" />
    <vehicle id="0_2_922" route="0_2" depart="922" />
    <vehicle id="1_0_923" route="1_0" depart="923" />
    <vehicle id="2_0_924" route="2_0" depart="924" />
    <vehicle id="1_3_927" route="1_3" depart="927" />
    <vehicle id="3_2_929" route="3_2" depart="929" />
    <vehicle id="2_3_931" route="2_3" depart="931" />
    <vehicle id="0_2_935" route="0_2" depart="935" />
    <vehicle id="3_1_938" route="3_1" depart="938" />
    <vehicle id="2_0_940" route="2_0" depart="940" />
    <vehicle id="2_3_942" route="2_3" depart="942" />
    <vehicle id="1_0_944" route="1_0" depart="944" />
    <vehicle id="2_0_946" route="2_0" depart="946" />
    <vehicle id="0_1_953" route="0_1" depart="953" />
    <vehicle id="0_1_956" route="0_1" depart="956" />
    <vehicle id="3_2_958" route="3_2" depart="958" />
    <vehicle id="3_2_961" route="3_2" depart="961" />
    <vehicle id="3_2_963" route="3_2" depart="963" />
    <vehicle id="3_1_966" route="3_1" depart="966" />
    <vehicle id="1_0_972" route="1_0" depart="972" />
    <vehicle id="1_0_976" route="1_0" depart="976" />
    <vehicle id="1_3_980" route="1_3" depart="980" />
    <vehicle id="0_1_981" route="0_1" depart="981" />
    <vehicle id="2_0_983" route="2_0" depart="983" />
    <vehicle id="0_1_985" route="0_1" depart="985" />
    <vehicle id="2_0_986" route="2_0" depart="986" />
    <vehicle id="1_0_989" route="1_0" depart="989" />
    <vehicle id="1_3_990" route="1_3" depart="990" />
    <vehicle id="2_0_993" route="2_0" depart="993" />
    <vehicle id="1_3_995" route="1_3" depart="995" />
    <vehicle id="2_3_997" route="2_3" depart="997" />
    <vehicle id="0_1_999" route="0_1" depart="999" />
    <vehicle id="3_1_1000" route="3_1" depart="1000" />
    <vehicle id="3_2_1004" route="3_2" depart="1004" />
    <vehicle id="0_2_1006" route="0_2" depart="1006" />
    <vehicle id="1_3_1008" route="1_3" depart="1008" />
    <vehicle id="2_3_1010" route="2_3" depart="1010" />
    <vehicle id="3_2_1015" route="3_2" depart="1015" />
    <vehicle id="3_2_1016" route="3_2" depart="1016" />
    <vehicle id="0_2_1017" route="0_2" depart="1017" />
    <vehicle id="2_0_1018" route="2_0" depart="1018" />
    <vehicle id="2_3_1022" route="2_3" depart="1022" />
    <vehicle id="2_3_1023" route="2_3" depart="1023" />
    <vehicle id="2_3_1025" route="2_3" depart="1025" />
    <vehicle id="3_1_1035" route="3_1" depart="1035" />
    <vehicle id="1_3_1036" route="1_3" depart="1036" />
    <vehicle id="3_2_1038" route="3_2" depart="1038" />
    <vehicle id="0_2_1039" route="0_2" depart="1039" />
    <vehicle id="0_2_1040" route="0_2" depart="1040" />
    <vehicle id="1_3_1041" route="1_3" depart="1041" />
    <vehicle id="0_1_1044" route="0_1" depart="1044" />
    <vehicle id="0_2_1047" route="0_2" depart="1047" />
    <vehicle id="0_1_1049" route="0_1" depart="1049" />
    <vehicle id="3_1_1050" route="3_1" depart="1050" />
    <vehicle id="3_1_1057" route="3_1" depart="1057" />
    <vehicle id="2_0_1058" route="2_0" depart="1058" />
    <vehicle id="2_3_1060" route="2_3" depart="1060" />
    <vehicle id="0_2_1061" route="0_2" depart="1061" />
    <vehicle id="3_2_1062" route="3_2" depart="1062" />
    <vehicle id="2_0_1064" route="2_0" depart="1064" />
    <vehicle id="2_3_1075" route="2_3" depart="1075" />
    <vehicle id="2_3_1077" route="2_3" depart="1077" />
    <vehicle id="1_0_1078" route="1_0" depart="1078" />
    <vehicle id="3_2_1080" route="3_2" depart="1080" />
    <vehicle id="0_2_1082" route="0_2" depart="1082" />
    <vehicle id="1_0_1084" route="1_0" depart="1084" />
    <vehicle id="2_0_1085" route="2_0" depart="1085" />
    <vehicle id="3_2_1086" route="3_2" depart="1086" />
    <vehicle id="3_2_1088" route="3_2" depart="1088" />
    <vehicle id="3_1_1089" route="3_1" depart="1089" />
    <vehicle id="1_0_1091" route="1_0" depart="1091" />
    <vehicle id="1_3_1092" route="1_3" depart="1092" />
    <vehicle id="3_1_1094" route="3_1" depart="1094" />
    <vehicle id="2_3_1096" route="2_3" depart="1096" />
    <vehicle id="2_0_1097" route="2_0" depart="1097" />
    <vehicle id="0_2_1098" route="0_2" depart="1098" />
    <vehicle id="2_0_1100" route="2_0" depart="1100" />
    <vehicle id="2_0_1102" route="2_0" depart="1102" />
    <vehicle id="2_0_1106" route="2_0" depart="1106" />
    <vehicle id="3_2_1107" route="3_2" depart="1107" />
    <vehicle id="2_3_1110" route="2_3" depart="1110" />
    <vehicle id="1_0_1111" route="1_0" depart="1111" />
    <vehicle id="1_0_1114" route="1_0" depart="1114" />
    <vehicle id="3_1_1115" route="3_1" depart="1115" />
    <vehicle id="0_1_1120" route="0_1" depart="1120" />
    <vehicle id="0_2_1122" route="0_2" depart="1122" />
    <vehicle id="3_2_1124" route="3_2" depart="1124" />
    <vehicle id="3_2_1125" route="3_2" depart="1125" />
    <vehicle id="2_0_1128" route="2_0" depart="1128" />
    <vehicle id="1_3_1130" route="1_3" depart="1130" />
    <vehicle id="3_1_1133" route="3_1" depart="1133" />
    <vehicle id="1_3_1134" route="1_3" depart="1134" />
    <vehicle id="3_2_1137" route="3_2" depart="1137" />
    <vehicle id="1_0_1141" route="1_0" depart="1141" />
    <vehicle id="2_3_1142" route="2_3" depart="1142" />
    <vehicle id="0_1_1144" route="0_1" depart="1144" />
    <vehicle id="3_1_1145" route="3_1" depart="1145" />
    <vehicle id="2_3_1146" route="2_3" depart="1146" />
    <vehicle id="0_1_1147" route="0_1" depart="1147" />
    <vehicle id="1_0_1152" route="1_0" depart="1152" />
    <vehicle id="3_1_1154" route="3_1" depart="1154" />
    <vehicle id="2_0_1156" route="2_0" depart="1156" />
    <vehicle id="3_2_1160" route="3_2" depart="1160" />
    <vehicle id="3_1_1162" route="3_1" depart="1162" />
    <vehicle id="2_0_1163" route="2_0" depart="1163" />
    <vehicle id="1_0_1166" route="1_0" depart="1166" />
    <vehicle id="1_3_1172" route="1_3" depart="1172" />
    <vehicle id="3_1_1173" route="3_1" depart="1173" />
    <vehicle id="1_3_1175" route="1_3" depart="1175" />
    <vehicle id="1_3_1178" route="1_3" depart="1178" />
    <vehicle id="1_0_1180" route="1_0" depart="1180" />
    <vehicle id="2_3_1182" route="2_3" depart="1182" />
    <vehicle id="3_2_1183" route="3_2" depart="1183" />
    <vehicle id="0_2_1184" route="0_2" depart="1184" />
    <vehicle id="0_2_1186" route="0_2" depart="1186" />
    <vehicle id="1_0_1188" route="1_0" depart="1188" />
    <vehicle id="2_0_1191" route="2_0" depart="1191" />
    <vehicle id="0_2_1192" route="0_2" depart="1192" />
    <vehicle id="1_0_1197" route="1_0" depart="1197" />
    <vehicle id="0_2_1200" route="0_2" depart="1200" />
    <vehicle id="1_3_1201" route="1_3" depart="1201" />
    <vehicle id="1_3_1204" route="1_3" depart="1204" />
    <vehicle id="0_2_1205" route="0_2" depart="1205" />
    <vehicle id="2_3_1208" route="2_3" depart="1208" />
    <vehicle id="0_1_1209" route="0_1" depart="1209" />
    <vehicle id="2_0_1214" route="2_0" depart="1214" />
    <vehicle id="2_0_1215" route="2_0" depart="1215" />
    <vehicle id="2_3_1216" route="2_3" depart="1216" />
    <vehicle id="0_2_1217" route="0_2" depart="1217" />
    <vehicle id="1_3_1218" route="1_3" depart="1218" />
    <vehicle id="2_0_1219" route="2_0" depart="1219" />
    <vehicle id="2_3_1223" route="2_3" depart="1223" />
    <vehicle id="0_1_1225" route="0_1" depart="1225" />
    <vehicle id="0_1_1230" route="0_1" depart="1230" />
    <vehicle id="3_1_1232" route="3_1" depart="1232" />
    <vehicle id="0_2_1233" route="0_2" depart="1233" />
    <vehicle id="2_3_1238" route="2_3" depart="1238" />
    <vehicle id="0_1_1239" route="0_1" depart="1239" />
    <vehicle id="0_2_1245" route="0_2" depart="1245" />
    <vehicle id="3_1_1246" route="3_1" depart="1246" />
    <vehicle id="2_0_1252" route="2_0" depart="1252" />
    <vehicle id="3_1_1256" route="3_1" depart="1256" />
    <vehicle id="1_0_1257" route="1_0" depart="1257" />
    <vehicle id="3_2_1258" route="3_2" depart="1258" />
    <vehicle id="1_3_1261" route="1_3" depart="1261" />
    <vehicle id="1_3_1262" route="1_3" depart="1262" />
    <vehicle id="3_1_1264" route="3_1" depart="1264" />
    <vehicle id="2_3_1269" route="2_3" depart="1269" />
    <vehicle id="2_3_1274" route="2_3" depart="1274" />
    <vehicle id="3_2_1279" route="3_2" depart="1279" />
    <vehicle id="0_2_1283" route="0_2" depart="1283" />
    <vehicle id="0_2_1285" route="0_2" depart="1285" />
    <vehicle id="2_0_1290" route="2_0" depart="1290" />
    <vehicle id="2_0_1296" route="2_0" depart="1296" />
    <vehicle id="0_1_1298" route="0_1" depart="1298" />
    <vehicle id="2_0_1299" route="2_0" depart="1299" />
    <vehicle id="0_1_1301" route="0_1" depart="1301" />
    <vehicle id="1_3_1305" route="1_3" depart="1305" />
    <vehicle id="3_2_1306" route="3_2" depart="1306" />
    <vehicle id="1_0_1307" route="1_0" depart="1307" />
    <vehicle id="0_1_1309" route="0_1" depart="1309" />
    <vehicle id="1_0_1310" route="1_0" depart="1310" />
    <vehicle id="0_2_1314" route="0_2" depart="1314" />
    <vehicle id="0_1_1315" route="0_1" depart="1315" />
    <vehicle id="0_1_1316" route="0_1" depart="1316" />
    <vehicle id="3_2_1319" route="3_2" depart="1319" />
    <vehicle id="0_1_1320" route="0_1" depart="1320" />
    <vehicle id="2_3_1323" route="2_3" depart="1323" />
    <vehicle id="0_2_1325" route="0_2" depart="1325" />
    <vehicle id="0_1_1327" route="0_1" depart="1327" />
    <vehicle id="0_2_1328" route="0_2" depart="1328" />